contingency/peak_load/0pc/TNB_DUMA_VLN.Txt

SYMMETRICAL COMPONENT VOLTAGES BY BUS (for 3-phase buses)

Bus               Mag:   V1 (kV)    p.u.     V2 (kV)   %V2/V1    V0 (kV)    %V0/V1

ppu_duma_33kv        18.89     0.9913  9.229E-009  4.886E-008 1.239E-009 6.562E-009
ppu_duma_11kv        6.021     0.9481  3.118E-009  5.177E-008 1.789E-012 2.97E-011
rpplngi2             5.984     0.9422  3.098E-009  5.177E-008 1.815E-012 3.033E-011
pdtjlnmasjid         5.955     0.9377  3.083E-009  5.177E-008 1.838E-012 3.087E-011
bella                5.937     0.9348  3.073E-009  5.177E-008 1.856E-012 3.126E-011
pstpdgn              5.927     0.9333  3.068E-009  5.177E-008 1.866E-012 3.147E-011
pamdra                6.02     0.9478  3.117E-009  5.177E-008 1.789E-012 2.972E-011
duma4                6.013     0.9468  3.113E-009  5.177E-008 1.831E-012 3.044E-011
plsdra               5.996     0.9442  3.105E-009  5.177E-008 2.056E-012 3.429E-011
ssu_uptwres_ir1      5.991     0.9433  3.102E-009  5.177E-008 2.066E-012 3.449E-011
atria_1               5.99     0.9431  3.101E-009  5.177E-008 1.808E-012 3.019E-011
hawker               5.983     0.9421  3.098E-009  5.177E-008 1.918E-012 3.205E-011
prmte                5.966     0.9394  3.089E-009  5.177E-008 2.546E-012 4.267E-011
prmta                5.958     0.9382  3.085E-009  5.177E-008 2.564E-012 4.304E-011
pmontb               5.954     0.9376  3.083E-009  5.177E-008 2.658E-012 4.464E-011
duma7                6.011     0.9465  3.112E-009  5.177E-008 1.796E-012 2.988E-011
haus                 5.999     0.9446  3.106E-009  5.177E-008 1.891E-012 3.152E-011
duma6                5.968     0.9398  3.09E-009  5.177E-008 2.476E-012 4.149E-011
duma13               5.945     0.9362  3.078E-009  5.177E-008 3.084E-012 5.187E-011
ssu_duma5_im2        5.939     0.9352  3.075E-009  5.177E-008 3.099E-012 5.218E-011
plngi_b              6.015     0.9471  3.114E-009  5.177E-008 1.792E-012 2.98E-011
plngi_d              6.014      0.947  3.114E-009  5.177E-008 1.793E-012 2.981E-011
pdtlitrak            5.969     0.9399  3.09E-009  5.177E-008 1.829E-012 3.064E-011
duma12               5.948     0.9366  3.079E-009  5.177E-008 1.849E-012 3.108E-011
tmngh4               5.932      0.934  3.071E-009  5.177E-008 2.054E-012 3.462E-011
ssu_tmegah3_ir1      5.925      0.933  3.067E-009  5.177E-008 2.18E-012 3.678E-011
tmngh2               5.921     0.9324  3.065E-009  5.177E-008 2.262E-012 3.82E-011
sprk9                5.925      0.933  3.067E-009  5.177E-008 1.881E-012 3.175E-011
bomba                5.921     0.9323  3.065E-009  5.177E-008 1.929E-012 3.257E-011
sprk8                 5.91     0.9306  3.059E-009  5.177E-008 2.087E-012 3.531E-011
ssu_uptwres_im2      6.008     0.9459  3.11E-009  5.177E-008 1.865E-012 3.105E-011
maybank              5.999     0.9447  3.106E-009  5.177E-008 1.876E-012 3.127E-011
duma8                5.998     0.9444  3.105E-009  5.177E-008 1.895E-012 3.16E-011
ssu_dsarcntr_ir1     6.019     0.9478  3.117E-009  5.177E-008 1.79E-012 2.973E-011
duma9                 5.97       0.94  3.091E-009  5.177E-008 1.825E-012 3.057E-011
duma1                5.949     0.9367  3.08E-009  5.177E-008 1.844E-012  3.1E-011
elite                5.941     0.9355  3.076E-009  5.177E-008 1.852E-012 3.116E-011
duma10               5.999     0.9446  3.106E-009  5.177E-008 1.807E-012 3.012E-011
balaipolis           5.999     0.9446  3.106E-009  5.177E-008 1.807E-012 3.013E-011
ppu_duma_vcb1            0          0          0          0         0         0
